tests/fuzzer/corpus_json/21_random_026.json
{
  "version": "1.0",
  "type": "input",
  "is_batch": false,
  "attributes": {},
  "data": {
    "node": [
      {
        "id": 0,
        "u_rated": 400.0
      },
      {
        "id": 1,
        "u_rated": 400.0
      },
      {
        "id": 2,
        "u_rated": 400.0
      },
      {
        "id": 3,
        "u_rated": 400.0
      },
      {
        "id": 4,
        "u_rated": 400.0
      },
      {
        "id": 5,
        "u_rated": 400.0
      },
      {
        "id": 6,
        "u_rated": 400.0
      },
      {
        "id": 7,
        "u_rated": 400.0
      },
      {
        "id": 8,
        "u_rated": 400.0
      },
      {
        "id": 9,
        "u_rated": 400.0
      },
      {
        "id": 10,
        "u_rated": 400.0
      },
      {
        "id": 11,
        "u_rated": 400.0
      },
      {
        "id": 12,
        "u_rated": 400.0
      }
    ],
    "source": [
      {
        "id": 13,
        "node": 0,
        "status": 1,
        "u_ref": 0.9864915722619849,
        "u_ref_angle": 0.0,
        "sk": 659521367.3192123,
        "rx_ratio": 0.2720071899025041,
        "z01_ratio": 1.0
      },
      {
        "id": 14,
        "node": 12,
        "status": 1,
        "u_ref": 1.0,
        "u_ref_angle": 0.0,
        "sk": 951175310.7893071,
        "rx_ratio": 0.1,
        "z01_ratio": 1.0
      }
    ],
    "line": [
      {
        "id": 15,
        "from_node": 0,
        "to_node": 1,
        "from_status": 1,
        "to_status": 1,
        "r1": 2.386269310181449,
        "x1": 3.6508561552835603,
        "c1": 6.234095134044994e-07,
        "tan1": 0.0,
        "r0": 0.3,
        "x0": 0.3,
        "c0": 1e-09,
        "tan0": 0.0,
        "i_n": 179.90130066193092
      },
      {
        "id": 16,
        "from_node": 1,
        "to_node": 2,
        "from_status": 1,
        "to_status": 1,
        "r1": 2.147990463440591,
        "x1": 1.2122488761975436,
        "c1": 7.477376044477572e-07,
        "tan1": 0.0,
        "r0": 0.3,
        "x0": 0.3,
        "c0": 1e-09,
        "tan0": 0.0,
        "i_n": 720.0488840468378
      },
      {
        "id": 17,
        "from_node": 2,
        "to_node": 3,
        "from_status": 1,
        "to_status": 1,
        "r1": 1.009718656029717,
        "x1": 3.4624937911240385,
        "c1": 8.559337558507294e-07,
        "tan1": 0.0,
        "r0": 0.3,
        "x0": 0.3,
        "c0": 1e-09,
        "tan0": 0.0,
        "i_n": 669.9934618809489
      },
      {
        "id": 18,
        "from_node": 3,
        "to_node": 4,
        "from_status": 1,
        "to_status": 1,
        "r1": 4.271105498905543,
        "x1": 0.7210163447786627,
        "c1": 2.1649359611762963e-07,
        "tan1": 0.0,
        "r0": 0.3,
        "x0": 0.3,
        "c0": 1e-09,
        "tan0": 0.0,
        "i_n": 488.348155919242
      },
      {
        "id": 19,
        "from_node": 4,
        "to_node": 5,
        "from_status": 1,
        "to_status": 1,
        "r1": 3.8263588755083755,
        "x1": 1.9434007392927533,
        "c1": 2.436455028331983e-07,
        "tan1": 0.0,
        "r0": 0.3,
        "x0": 0.3,
        "c0": 1e-09,
        "tan0": 0.0,
        "i_n": 588.3080443030801
      },
      {
        "id": 20,
        "from_node": 5,
        "to_node": 6,
        "from_status": 1,
        "to_status": 1,
        "r1": 0.15191245706774603,
        "x1": 3.6850814258105995,
        "c1": 8.44671529110583e-07,
        "tan1": 0.0,
        "r0": 0.3,
        "x0": 0.3,
        "c0": 1e-09,
        "tan0": 0.0,
        "i_n": 541.3259595863019
      },
      {
        "id": 21,
        "from_node": 6,
        "to_node": 7,
        "from_status": 1,
        "to_status": 1,
        "r1": 2.5474950314994063,
        "x1": 3.2219366359595143,
        "c1": 4.643311023723887e-07,
        "tan1": 0.0,
        "r0": 0.3,
        "x0": 0.3,
        "c0": 1e-09,
        "tan0": 0.0,
        "i_n": 660.835420530379
      },
      {
        "id": 22,
        "from_node": 7,
        "to_node": 8,
        "from_status": 1,
        "to_status": 1,
        "r1": 1.5680773115137825,
        "x1": 1.595927061555527,
        "c1": 6.660896943766852e-07,
        "tan1": 0.0,
        "r0": 0.3,
        "x0": 0.3,
        "c0": 1e-09,
        "tan0": 0.0,
        "i_n": 437.6913691227798
      },
      {
        "id": 23,
        "from_node": 8,
        "to_node": 9,
        "from_status": 1,
        "to_status": 1,
        "r1": 3.4653842151437546,
        "x1": 0.28101745549177826,
        "c1": 9.50981305916186e-07,
        "tan1": 0.0,
        "r0": 0.3,
        "x0": 0.3,
        "c0": 1e-09,
        "tan0": 0.0,
        "i_n": 205.40240712728126
      },
      {
        "id": 24,
        "from_node": 9,
        "to_node": 10,
        "from_status": 1,
        "to_status": 1,
        "r1": 3.121153801095049,
        "x1": 4.334556439074238,
        "c1": 6.071251669400935e-07,
        "tan1": 0.0,
        "r0": 0.3,
        "x0": 0.3,
        "c0": 1e-09,
        "tan0": 0.0,
        "i_n": 164.42992052679995
      },
      {
        "id": 25,
        "from_node": 10,
        "to_node": 11,
        "from_status": 1,
        "to_status": 1,
        "r1": 0.49713079165260743,
        "x1": 0.6291410157433758,
        "c1": 5.486545764959769e-07,
        "tan1": 0.0,
        "r0": 0.3,
        "x0": 0.3,
        "c0": 1e-09,
        "tan0": 0.0,
        "i_n": 781.3682974450386
      },
      {
        "id": 26,
        "from_node": 11,
        "to_node": 12,
        "from_status": 1,
        "to_status": 1,
        "r1": 0.235053502274718,
        "x1": 1.0902177307742855,
        "c1": 5.96168374874849e-07,
        "tan1": 0.0,
        "r0": 0.3,
        "x0": 0.3,
        "c0": 1e-09,
        "tan0": 0.0,
        "i_n": 991.3059164623364
      }
    ],
    "sym_load": [
      {
        "id": 27,
        "node": 3,
        "status": 1,
        "type": 1,
        "p_specified": 56748.03710732685,
        "q_specified": 8844.340953301657
      },
      {
        "id": 28,
        "node": 5,
        "status": 1,
        "type": 0,
        "p_specified": -29542.317843045326,
        "q_specified": 3509.267157267812
      },
      {
        "id": 29,
        "node": 9,
        "status": 1,
        "type": 2,
        "p_specified": 55080.17086860846,
        "q_specified": 8257.178616813075
      },
      {
        "id": 30,
        "node": 11,
        "status": 1,
        "type": 1,
        "p_specified": 20609.613344179626,
        "q_specified": 4219.99365572567
      }
    ],
    "shunt": [
      {
        "id": 31,
        "node": 0,
        "status": 1,
        "g1": 8.153762837802448e-07,
        "b1": -7.769230161245698e-05,
        "g0": 0.0001,
        "b0": 0.0001
      }
    ]
  }
}